https://chemcompute.org/app/GAMESS/download_job/1349502/?t=0.05126067473069995
__Jmol-14_10292507023D 1   1.00000     0.00000     0
Jmol version 14.31.39  2021-05-15 06:46 EXTRACT: ({137:273})
137139  0  0  0  0            999 V2000
    0.0682    0.0287    0.1810 Ni  0  0  2  0  0  0
   -0.7147   -2.2976    1.0436 P   0  0  0  0  0  0
   -2.2679    0.8909    0.2698 P   0  0  0  0  0  0
    2.1932   -0.9266   -0.8496 P   0  0  0  0  0  0
    0.9811    2.4463    0.0777 P   0  0  0  0  0  0
    0.4764   -3.3950    2.0510 C   0  0  0  0  0  0
   -1.4112   -4.0014    0.3438 C   0  0  0  0  0  0
   -2.2205   -2.1427    2.1812 C   0  0  0  0  0  0
   -3.3602   -0.2569   -0.7197 C   0  0  0  0  0  0
   -2.6291    2.3536   -0.8497 C   0  0  0  0  0  0
   -3.4611    1.3590    1.7133 C   0  0  0  0  0  0
    2.8755    2.3195    0.0026 C   0  0  0  0  0  0
   -0.0904    3.6743    1.1940 C   0  0  0  0  0  0
    1.5787    4.1551   -0.6210 C   0  0  0  0  0  0
    1.8650   -2.5722   -1.7345 C   0  0  0  0  0  0
    2.3916    0.0233   -2.4577 C   0  0  0  0  0  0
    4.0927   -1.1612   -0.3930 C   0  0  0  0  0  0
   -2.1356   -4.8148    1.1700 C   0  0  0  0  0  0
   -2.2087   -6.2905    1.1131 C   0  0  0  0  0  0
   -1.6506   -6.9235    0.0791 C   0  0  0  0  0  0
   -0.9801   -6.1037   -0.9498 C   0  0  0  0  0  0
   -0.8704   -4.7583   -0.8067 C   0  0  0  0  0  0
    0.0272   -4.2533    3.0039 C   0  0  0  0  0  0
    0.8566   -5.3709    3.5170 C   0  0  0  0  0  0
    2.0914   -5.5610    3.0415 C   0  0  0  0  0  0
    2.6369   -4.6022    2.0684 C   0  0  0  0  0  0
    1.8826   -3.5866    1.6245 C   0  0  0  0  0  0
   -2.1175   -1.8121    3.4784 C   0  0  0  0  0  0
   -3.2902   -1.9241    4.3796 C   0  0  0  0  0  0
   -4.4667   -2.3896    3.9329 C   0  0  0  0  0  0
   -4.6155   -2.7459    2.5159 C   0  0  0  0  0  0
   -3.5762   -2.5859    1.6944 C   0  0  0  0  0  0
   -4.7004   -0.0725   -0.7978 C   0  0  0  0  0  0
   -5.5727   -1.0002   -1.5303 C   0  0  0  0  0  0
   -5.0408   -2.0482   -2.1616 C   0  0  0  0  0  0
   -3.5767   -2.2505   -2.1318 C   0  0  0  0  0  0
   -2.7886   -1.4063   -1.4588 C   0  0  0  0  0  0
   -1.7614    2.7486   -1.7872 C   0  0  0  0  0  0
   -2.0547    3.9076   -2.6583 C   0  0  0  0  0  0
   -3.1917    4.5842   -2.5235 C   0  0  0  0  0  0
   -4.1778    4.1683   -1.5185 C   0  0  0  0  0  0
   -3.9158    3.1135   -0.7417 C   0  0  0  0  0  0
   -3.5474    2.6062    2.2080 C   0  0  0  0  0  0
   -4.5979    3.0371    3.1783 C   0  0  0  0  0  0
   -5.5341    2.1712    3.5789 C   0  0  0  0  0  0
   -5.5137    0.8127    3.0418 C   0  0  0  0  0  0
   -4.5526    0.4650    2.1759 C   0  0  0  0  0  0
   -0.5857    4.8939    0.7331 C   0  0  0  0  0  0
   -1.3187    5.8728    1.5517 C   0  0  0  0  0  0
   -1.5988    5.5750    2.8068 C   0  0  0  0  0  0
   -1.1689    4.2755    3.3492 C   0  0  0  0  0  0
   -0.4474    3.3896    2.6105 C   0  0  0  0  0  0
    2.2727    4.9931    0.2235 C   0  0  0  0  0  0
    2.7829    6.3105   -0.1758 C   0  0  0  0  0  0
    2.5615    6.7442   -1.4152 C   0  0  0  0  0  0
    1.8146    5.8883   -2.3629 C   0  0  0  0  0  0
    1.3591    4.6736   -2.0013 C   0  0  0  0  0  0
    3.6888    2.2312    1.0617 C   0  0  0  0  0  0
    5.1661    2.3348    0.8788 C   0  0  0  0  0  0
    5.7149    2.5268   -0.3324 C   0  0  0  0  0  0
    4.8545    2.6291   -1.5098 C   0  0  0  0  0  0
    3.5427    2.5168   -1.3438 C   0  0  0  0  0  0
    3.5454    0.2324   -3.1533 C   0  0  0  0  0  0
    3.5727    0.9930   -4.4099 C   0  0  0  0  0  0
    2.4449    1.5069   -4.8954 C   0  0  0  0  0  0
    1.1763    1.3002   -4.1672 C   0  0  0  0  0  0
    1.1611    0.6025   -3.0285 C   0  0  0  0  0  0
    1.0291   -2.6605   -2.8026 C   0  0  0  0  0  0
    0.8803   -3.9431   -3.5498 C   0  0  0  0  0  0
    1.4781   -5.0700   -3.1116 C   0  0  0  0  0  0
    2.3036   -5.0179   -1.8789 C   0  0  0  0  0  0
    2.6187   -3.8280   -1.3671 C   0  0  0  0  0  0
    4.8972   -1.7789   -1.3008 C   0  0  0  0  0  0
    6.3516   -1.9821   -1.1891 C   0  0  0  0  0  0
    6.9911   -1.5118   -0.1279 C   0  0  0  0  0  0
    6.2183   -0.8313    0.9166 C   0  0  0  0  0  0
    4.8633   -0.6929    0.8209 C   0  0  0  0  0  0
   -3.0277   -4.9593    0.5629 H   0  0  0  0  0  0
   -2.7196   -6.8479    1.8912 H   0  0  0  0  0  0
   -1.7037   -8.0025    0.0043 H   0  0  0  0  0  0
   -0.5618   -6.6310   -1.7971 H   0  0  0  0  0  0
   -0.3721   -4.1738   -1.5044 H   0  0  0  0  0  0
   -0.9950   -4.2542    3.3561 H   0  0  0  0  0  0
    0.4430   -6.0737    4.2285 H   0  0  0  0  0  0
    2.6863   -6.4069    3.3698 H   0  0  0  0  0  0
    3.6550   -4.7245    1.7127 H   0  0  0  0  0  0
    2.3087   -2.9086    0.9334 H   0  0  0  0  0  0
   -1.1606   -1.5296    3.8958 H   0  0  0  0  0  0
   -3.1875   -1.6600    5.4236 H   0  0  0  0  0  0
   -5.3163   -2.4900    4.5924 H   0  0  0  0  0  0
   -5.5741   -3.0897    2.1365 H   0  0  0  0  0  0
   -3.7434   -2.8231    0.6520 H   0  0  0  0  0  0
   -5.2083    0.7422   -0.3083 H   0  0  0  0  0  0
   -6.6462   -0.8365   -1.5486 H   0  0  0  0  0  0
   -5.6765   -2.7361   -2.6969 H   0  0  0  0  0  0
   -3.1463   -3.0892   -2.6643 H   0  0  0  0  0  0
   -1.7204   -1.5674   -1.4616 H   0  0  0  0  0  0
   -0.8383    2.2393   -1.9314 H   0  0  0  0  0  0
   -1.3430    4.2135   -3.4117 H   0  0  0  0  0  0
   -3.4028    5.4344   -3.1594 H   0  0  0  0  0  0
   -5.1099    4.7065   -1.4179 H   0  0  0  0  0  0
   -4.6979    2.8627   -0.0386 H   0  0  0  0  0  0
   -2.8910    3.3558    1.8248 H   0  0  0  0  0  0
   -4.6398    4.0549    3.5398 H   0  0  0  0  0  0
   -6.3250    2.4684    4.2603 H   0  0  0  0  0  0
   -6.2932    0.1100    3.3088 H   0  0  0  0  0  0
   -4.6344   -0.4794    1.7503 H   0  0  0  0  0  0
   -0.4543    5.3405   -0.2512 H   0  0  0  0  0  0
   -1.6124    6.8325    1.1291 H   0  0  0  0  0  0
   -2.1450    6.2829    3.4227 H   0  0  0  0  0  0
   -1.5083    4.0849    4.3495 H   0  0  0  0  0  0
   -0.1707    2.4415    3.0438 H   0  0  0  0  0  0
    2.4713    4.7001    1.2511 H   0  0  0  0  0  0
    3.3296    6.9238    0.5324 H   0  0  0  0  0  0
    2.9310    7.7146   -1.7188 H   0  0  0  0  0  0
    1.6465    6.2614   -3.3648 H   0  0  0  0  0  0
    0.8306    4.0639   -2.7139 H   0  0  0  0  0  0
    3.2743    2.1415    2.0568 H   0  0  0  0  0  0
    5.8128    2.2671    1.7426 H   0  0  0  0  0  0
    6.7844    2.6140   -0.4673 H   0  0  0  0  0  0
    5.2709    2.8008   -2.4987 H   0  0  0  0  0  0
    2.9360    2.6227   -2.2294 H   0  0  0  0  0  0
    4.5282   -0.0747   -2.8848 H   0  0  0  0  0  0
    4.5141    1.1391   -4.9322 H   0  0  0  0  0  0
    2.4590    2.0700   -5.8152 H   0  0  0  0  0  0
    0.2594    1.7134   -4.5649 H   0  0  0  0  0  0
    0.2293    0.4419   -2.5066 H   0  0  0  0  0  0
    0.4614   -1.8205   -3.1598 H   0  0  0  0  0  0
    0.2470   -3.9792   -4.4237 H   0  0  0  0  0  0
    1.3178   -6.0075   -3.6204 H   0  0  0  0  0  0
    2.6112   -5.9298   -1.3769 H   0  0  0  0  0  0
    3.1532   -3.5352   -2.2539 H   0  0  0  0  0  0
    4.5497   -2.1321   -2.2480 H   0  0  0  0  0  0
    6.8989   -2.4858   -1.9758 H   0  0  0  0  0  0
    8.0636   -1.6338   -0.0384 H   0  0  0  0  0  0
    6.8458   -0.4674    1.7291 H   0  0  0  0  0  0
    4.3639   -0.1954    1.6310 H   0  0  0  0  0  0
  1  3  1  0  0  0
  1  2  1  0  0  0
  3 10  1  0  0  0
  3  9  1  0  0  0
  4  1  1  0  0  0
  5  1  1  0  0  0
  6 23  1  0  0  0
  7 18  1  0  0  0
  8 28  1  0  0  0
  8 32  1  0  0  0
  9 33  1  0  0  0
 10 42  1  0  0  0
 11 43  1  0  0  0
 11 47  1  0  0  0
 13 48  1  0  0  0
 13 52  1  0  0  0
 14 57  1  0  0  0
 15 68  1  0  0  0
 16 67  1  0  0  0
 16  4  1  0  0  0
 18 78  1  0  0  0
 19 18  1  0  0  0
 19 79  1  0  0  0
 20 19  1  0  0  0
 21 22  1  0  0  0
 21 20  1  0  0  0
 22  7  1  0  0  0
 23 83  1  0  0  0
 24 23  1  0  0  0
 24 84  1  0  0  0
 25 24  1  0  0  0
 26 27  1  0  0  0
 26 25  1  0  0  0
 27  6  1  0  0  0
 28 29  1  0  0  0
 29 89  1  0  0  0
 29 30  1  0  0  0
 30 90  1  0  0  0
 31 30  1  0  0  0
 31 91  1  0  0  0
 32 31  1  0  0  0
 33 34  1  0  0  0
 33 93  1  0  0  0
 34 94  1  0  0  0
 35 34  1  0  0  0
 35 95  1  0  0  0
 36 35  1  0  0  0
 37 36  1  0  0  0
 37  9  1  0  0  0
 38 39  1  0  0  0
 38 10  1  0  0  0
 39 40  1  0  0  0
 40100  1  0  0  0
 40 41  1  0  0  0
 41101  1  0  0  0
 42 41  1  0  0  0
 42102  1  0  0  0
 43 44  1  0  0  0
 44104  1  0  0  0
 44 45  1  0  0  0
 45105  1  0  0  0
 46 45  1  0  0  0
 46106  1  0  0  0
 47 46  1  0  0  0
 48 49  1  0  0  0
 49109  1  0  0  0
 49 50  1  0  0  0
 50110  1  0  0  0
 51 50  1  0  0  0
 51111  1  0  0  0
 52 51  1  0  0  0
 53 14  1  0  0  0
 54 55  1  0  0  0
 54 53  1  0  0  0
 55 56  1  0  0  0
 56116  1  0  0  0
 56 57  1  0  0  0
 57117  1  0  0  0
 58 12  1  0  0  0
 58118  1  0  0  0
 59 58  1  0  0  0
 60 61  1  0  0  0
 60 59  1  0  0  0
 61 62  1  0  0  0
 62122  1  0  0  0
 62 12  1  0  0  0
 63 16  1  0  0  0
 64 65  1  0  0  0
 64 63  1  0  0  0
 65 66  1  0  0  0
 66126  1  0  0  0
 66 67  1  0  0  0
 67127  1  0  0  0
 68128  1  0  0  0
 69129  1  0  0  0
 69 68  1  0  0  0
 70 69  1  0  0  0
 71 70  1  0  0  0
 71 72  1  0  0  0
 72 15  1  0  0  0
 73 17  1  0  0  0
 74 73  1  0  0  0
 75 76  1  0  0  0
 75 74  1  0  0  0
 76 77  1  0  0  0
 77 17  1  0  0  0
 77137  1  0  0  0
 80 20  1  0  0  0
 81 21  1  0  0  0
 82 22  1  0  0  0
 85 25  1  0  0  0
 86 26  1  0  0  0
 87 27  1  0  0  0
 88 28  1  0  0  0
 92 32  1  0  0  0
 96 36  1  0  0  0
 97 37  1  0  0  0
 98 38  1  0  0  0
 99 39  1  0  0  0
103 43  1  0  0  0
107 47  1  0  0  0
108 48  1  0  0  0
112 52  1  0  0  0
113 53  1  0  0  0
114 54  1  0  0  0
115 55  1  0  0  0
119 59  1  0  0  0
120 60  1  0  0  0
121 61  1  0  0  0
123 63  1  0  0  0
124 64  1  0  0  0
125 65  1  0  0  0
130 70  1  0  0  0
131 71  1  0  0  0
132 72  1  0  0  0
133 73  1  0  0  0
134 74  1  0  0  0
135 75  1  0  0  0
136 76  1  0  0  0
M  END
https://chemcompute.org/app/GAMESS/download_job/1349502/?t=0.05126067473069995
__Jmol-14_10292507243D 1   1.00000     0.00000     0
Jmol version 14.31.39  2021-05-15 06:46 EXTRACT: ({137:273})
137139  0  0  0  0            999 V2000
    0.0682    0.0287    0.1810 Ni  0  0  2  0  0  0
   -0.7147   -2.2976    1.0436 P   0  0  0  0  0  0
   -2.2679    0.8909    0.2698 P   0  0  0  0  0  0
    2.1932   -0.9266   -0.8496 P   0  0  0  0  0  0
    0.9811    2.4463    0.0777 P   0  0  0  0  0  0
    0.4764   -3.3950    2.0510 C   0  0  0  0  0  0
   -1.4112   -4.0014    0.3438 C   0  0  0  0  0  0
   -2.2205   -2.1427    2.1812 C   0  0  0  0  0  0
   -3.3602   -0.2569   -0.7197 C   0  0  0  0  0  0
   -2.6291    2.3536   -0.8497 C   0  0  0  0  0  0
   -3.4611    1.3590    1.7133 C   0  0  0  0  0  0
    2.8755    2.3195    0.0026 C   0  0  0  0  0  0
   -0.0904    3.6743    1.1940 C   0  0  0  0  0  0
    1.5787    4.1551   -0.6210 C   0  0  0  0  0  0
    1.8650   -2.5722   -1.7345 C   0  0  0  0  0  0
    2.3916    0.0233   -2.4577 C   0  0  0  0  0  0
    4.0927   -1.1612   -0.3930 C   0  0  0  0  0  0
   -2.1356   -4.8148    1.1700 C   0  0  0  0  0  0
   -2.2087   -6.2905    1.1131 C   0  0  0  0  0  0
   -1.6506   -6.9235    0.0791 C   0  0  0  0  0  0
   -0.9801   -6.1037   -0.9498 C   0  0  0  0  0  0
   -0.8704   -4.7583   -0.8067 C   0  0  0  0  0  0
    0.0272   -4.2533    3.0039 C   0  0  0  0  0  0
    0.8566   -5.3709    3.5170 C   0  0  0  0  0  0
    2.0914   -5.5610    3.0415 C   0  0  0  0  0  0
    2.6369   -4.6022    2.0684 C   0  0  0  0  0  0
    1.8826   -3.5866    1.6245 C   0  0  0  0  0  0
   -2.1175   -1.8121    3.4784 C   0  0  0  0  0  0
   -3.2902   -1.9241    4.3796 C   0  0  0  0  0  0
   -4.4667   -2.3896    3.9329 C   0  0  0  0  0  0
   -4.6155   -2.7459    2.5159 C   0  0  0  0  0  0
   -3.5762   -2.5859    1.6944 C   0  0  0  0  0  0
   -4.7004   -0.0725   -0.7978 C   0  0  0  0  0  0
   -5.5727   -1.0002   -1.5303 C   0  0  0  0  0  0
   -5.0408   -2.0482   -2.1616 C   0  0  0  0  0  0
   -3.5767   -2.2505   -2.1318 C   0  0  0  0  0  0
   -2.7886   -1.4063   -1.4588 C   0  0  0  0  0  0
   -1.7614    2.7486   -1.7872 C   0  0  0  0  0  0
   -2.0547    3.9076   -2.6583 C   0  0  0  0  0  0
   -3.1917    4.5842   -2.5235 C   0  0  0  0  0  0
   -4.1778    4.1683   -1.5185 C   0  0  0  0  0  0
   -3.9158    3.1135   -0.7417 C   0  0  0  0  0  0
   -3.5474    2.6062    2.2080 C   0  0  0  0  0  0
   -4.5979    3.0371    3.1783 C   0  0  0  0  0  0
   -5.5341    2.1712    3.5789 C   0  0  0  0  0  0
   -5.5137    0.8127    3.0418 C   0  0  0  0  0  0
   -4.5526    0.4650    2.1759 C   0  0  0  0  0  0
   -0.5857    4.8939    0.7331 C   0  0  0  0  0  0
   -1.3187    5.8728    1.5517 C   0  0  0  0  0  0
   -1.5988    5.5750    2.8068 C   0  0  0  0  0  0
   -1.1689    4.2755    3.3492 C   0  0  0  0  0  0
   -0.4474    3.3896    2.6105 C   0  0  0  0  0  0
    2.2727    4.9931    0.2235 C   0  0  0  0  0  0
    2.7829    6.3105   -0.1758 C   0  0  0  0  0  0
    2.5615    6.7442   -1.4152 C   0  0  0  0  0  0
    1.8146    5.8883   -2.3629 C   0  0  0  0  0  0
    1.3591    4.6736   -2.0013 C   0  0  0  0  0  0
    3.6888    2.2312    1.0617 C   0  0  0  0  0  0
    5.1661    2.3348    0.8788 C   0  0  0  0  0  0
    5.7149    2.5268   -0.3324 C   0  0  0  0  0  0
    4.8545    2.6291   -1.5098 C   0  0  0  0  0  0
    3.5427    2.5168   -1.3438 C   0  0  0  0  0  0
    3.5454    0.2324   -3.1533 C   0  0  0  0  0  0
    3.5727    0.9930   -4.4099 C   0  0  0  0  0  0
    2.4449    1.5069   -4.8954 C   0  0  0  0  0  0
    1.1763    1.3002   -4.1672 C   0  0  0  0  0  0
    1.1611    0.6025   -3.0285 C   0  0  0  0  0  0
    1.0291   -2.6605   -2.8026 C   0  0  0  0  0  0
    0.8803   -3.9431   -3.5498 C   0  0  0  0  0  0
    1.4781   -5.0700   -3.1116 C   0  0  0  0  0  0
    2.3036   -5.0179   -1.8789 C   0  0  0  0  0  0
    2.6187   -3.8280   -1.3671 C   0  0  0  0  0  0
    4.8972   -1.7789   -1.3008 C   0  0  0  0  0  0
    6.3516   -1.9821   -1.1891 C   0  0  0  0  0  0
    6.9911   -1.5118   -0.1279 C   0  0  0  0  0  0
    6.2183   -0.8313    0.9166 C   0  0  0  0  0  0
    4.8633   -0.6929    0.8209 C   0  0  0  0  0  0
   -3.0277   -4.9593    0.5629 H   0  0  0  0  0  0
   -2.7196   -6.8479    1.8912 H   0  0  0  0  0  0
   -1.7037   -8.0025    0.0043 H   0  0  0  0  0  0
   -0.5618   -6.6310   -1.7971 H   0  0  0  0  0  0
   -0.3721   -4.1738   -1.5044 H   0  0  0  0  0  0
   -0.9950   -4.2542    3.3561 H   0  0  0  0  0  0
    0.4430   -6.0737    4.2285 H   0  0  0  0  0  0
    2.6863   -6.4069    3.3698 H   0  0  0  0  0  0
    3.6550   -4.7245    1.7127 H   0  0  0  0  0  0
    2.3087   -2.9086    0.9334 H   0  0  0  0  0  0
   -1.1606   -1.5296    3.8958 H   0  0  0  0  0  0
   -3.1875   -1.6600    5.4236 H   0  0  0  0  0  0
   -5.3163   -2.4900    4.5924 H   0  0  0  0  0  0
   -5.5741   -3.0897    2.1365 H   0  0  0  0  0  0
   -3.7434   -2.8231    0.6520 H   0  0  0  0  0  0
   -5.2083    0.7422   -0.3083 H   0  0  0  0  0  0
   -6.6462   -0.8365   -1.5486 H   0  0  0  0  0  0
   -5.6765   -2.7361   -2.6969 H   0  0  0  0  0  0
   -3.1463   -3.0892   -2.6643 H   0  0  0  0  0  0
   -1.7204   -1.5674   -1.4616 H   0  0  0  0  0  0
   -0.8383    2.2393   -1.9314 H   0  0  0  0  0  0
   -1.3430    4.2135   -3.4117 H   0  0  0  0  0  0
   -3.4028    5.4344   -3.1594 H   0  0  0  0  0  0
   -5.1099    4.7065   -1.4179 H   0  0  0  0  0  0
   -4.6979    2.8627   -0.0386 H   0  0  0  0  0  0
   -2.8910    3.3558    1.8248 H   0  0  0  0  0  0
   -4.6398    4.0549    3.5398 H   0  0  0  0  0  0
   -6.3250    2.4684    4.2603 H   0  0  0  0  0  0
   -6.2932    0.1100    3.3088 H   0  0  0  0  0  0
   -4.6344   -0.4794    1.7503 H   0  0  0  0  0  0
   -0.4543    5.3405   -0.2512 H   0  0  0  0  0  0
   -1.6124    6.8325    1.1291 H   0  0  0  0  0  0
   -2.1450    6.2829    3.4227 H   0  0  0  0  0  0
   -1.5083    4.0849    4.3495 H   0  0  0  0  0  0
   -0.1707    2.4415    3.0438 H   0  0  0  0  0  0
    2.4713    4.7001    1.2511 H   0  0  0  0  0  0
    3.3296    6.9238    0.5324 H   0  0  0  0  0  0
    2.9310    7.7146   -1.7188 H   0  0  0  0  0  0
    1.6465    6.2614   -3.3648 H   0  0  0  0  0  0
    0.8306    4.0639   -2.7139 H   0  0  0  0  0  0
    3.2743    2.1415    2.0568 H   0  0  0  0  0  0
    5.8128    2.2671    1.7426 H   0  0  0  0  0  0
    6.7844    2.6140   -0.4673 H   0  0  0  0  0  0
    5.2709    2.8008   -2.4987 H   0  0  0  0  0  0
    2.9360    2.6227   -2.2294 H   0  0  0  0  0  0
    4.5282   -0.0747   -2.8848 H   0  0  0  0  0  0
    4.5141    1.1391   -4.9322 H   0  0  0  0  0  0
    2.4590    2.0700   -5.8152 H   0  0  0  0  0  0
    0.2594    1.7134   -4.5649 H   0  0  0  0  0  0
    0.2293    0.4419   -2.5066 H   0  0  0  0  0  0
    0.4614   -1.8205   -3.1598 H   0  0  0  0  0  0
    0.2470   -3.9792   -4.4237 H   0  0  0  0  0  0
    1.3178   -6.0075   -3.6204 H   0  0  0  0  0  0
    2.6112   -5.9298   -1.3769 H   0  0  0  0  0  0
    3.1532   -3.5352   -2.2539 H   0  0  0  0  0  0
    4.5497   -2.1321   -2.2480 H   0  0  0  0  0  0
    6.8989   -2.4858   -1.9758 H   0  0  0  0  0  0
    8.0636   -1.6338   -0.0384 H   0  0  0  0  0  0
    6.8458   -0.4674    1.7291 H   0  0  0  0  0  0
    4.3639   -0.1954    1.6310 H   0  0  0  0  0  0
  1  3  1  0  0  0
  1  2  1  0  0  0
  3 10  1  0  0  0
  3  9  1  0  0  0
  4  1  1  0  0  0
  5  1  1  0  0  0
  6 23  1  0  0  0
  7 18  1  0  0  0
  8 28  1  0  0  0
  8 32  1  0  0  0
  9 33  1  0  0  0
 10 42  1  0  0  0
 11 43  1  0  0  0
 11 47  1  0  0  0
 13 48  1  0  0  0
 13 52  1  0  0  0
 14 57  1  0  0  0
 15 68  1  0  0  0
 16 67  1  0  0  0
 16  4  1  0  0  0
 18 78  1  0  0  0
 19 18  1  0  0  0
 19 79  1  0  0  0
 20 19  1  0  0  0
 21 22  1  0  0  0
 21 20  1  0  0  0
 22  7  1  0  0  0
 23 83  1  0  0  0
 24 23  1  0  0  0
 24 84  1  0  0  0
 25 24  1  0  0  0
 26 27  1  0  0  0
 26 25  1  0  0  0
 27  6  1  0  0  0
 28 29  1  0  0  0
 29 89  1  0  0  0
 29 30  1  0  0  0
 30 90  1  0  0  0
 31 30  1  0  0  0
 31 91  1  0  0  0
 32 31  1  0  0  0
 33 34  1  0  0  0
 33 93  1  0  0  0
 34 94  1  0  0  0
 35 34  1  0  0  0
 35 95  1  0  0  0
 36 35  1  0  0  0
 37 36  1  0  0  0
 37  9  1  0  0  0
 38 39  1  0  0  0
 38 10  1  0  0  0
 39 40  1  0  0  0
 40100  1  0  0  0
 40 41  1  0  0  0
 41101  1  0  0  0
 42 41  1  0  0  0
 42102  1  0  0  0
 43 44  1  0  0  0
 44104  1  0  0  0
 44 45  1  0  0  0
 45105  1  0  0  0
 46 45  1  0  0  0
 46106  1  0  0  0
 47 46  1  0  0  0
 48 49  1  0  0  0
 49109  1  0  0  0
 49 50  1  0  0  0
 50110  1  0  0  0
 51 50  1  0  0  0
 51111  1  0  0  0
 52 51  1  0  0  0
 53 14  1  0  0  0
 54 55  1  0  0  0
 54 53  1  0  0  0
 55 56  1  0  0  0
 56116  1  0  0  0
 56 57  1  0  0  0
 57117  1  0  0  0
 58 12  1  0  0  0
 58118  1  0  0  0
 59 58  1  0  0  0
 60 61  1  0  0  0
 60 59  1  0  0  0
 61 62  1  0  0  0
 62122  1  0  0  0
 62 12  1  0  0  0
 63 16  1  0  0  0
 64 65  1  0  0  0
 64 63  1  0  0  0
 65 66  1  0  0  0
 66126  1  0  0  0
 66 67  1  0  0  0
 67127  1  0  0  0
 68128  1  0  0  0
 69129  1  0  0  0
 69 68  1  0  0  0
 70 69  1  0  0  0
 71 70  1  0  0  0
 71 72  1  0  0  0
 72 15  1  0  0  0
 73 17  1  0  0  0
 74 73  1  0  0  0
 75 76  1  0  0  0
 75 74  1  0  0  0
 76 77  1  0  0  0
 77 17  1  0  0  0
 77137  1  0  0  0
 80 20  1  0  0  0
 81 21  1  0  0  0
 82 22  1  0  0  0
 85 25  1  0  0  0
 86 26  1  0  0  0
 87 27  1  0  0  0
 88 28  1  0  0  0
 92 32  1  0  0  0
 96 36  1  0  0  0
 97 37  1  0  0  0
 98 38  1  0  0  0
 99 39  1  0  0  0
103 43  1  0  0  0
107 47  1  0  0  0
108 48  1  0  0  0
112 52  1  0  0  0
113 53  1  0  0  0
114 54  1  0  0  0
115 55  1  0  0  0
119 59  1  0  0  0
120 60  1  0  0  0
121 61  1  0  0  0
123 63  1  0  0  0
124 64  1  0  0  0
125 65  1  0  0  0
130 70  1  0  0  0
131 71  1  0  0  0
132 72  1  0  0  0
133 73  1  0  0  0
134 74  1  0  0  0
135 75  1  0  0  0
136 76  1  0  0  0
M  END
