10
 generated by VMD
 C         0.000180        0.085490        0.030840
 C         1.282640       -0.681670       -0.135440
 O        -0.002590        1.292140        0.233810
 C        -1.280290       -0.687290       -0.124250
 H         1.373710       -1.029020       -1.168490
 H         1.294450       -1.533830        0.550280
 H         2.133630       -0.036000        0.101890
 H        -1.501710       -0.820970       -1.186900
 H        -2.099130       -0.142480        0.355400
 H        -1.189920       -1.662860        0.362100
10
 generated by VMD
 C         0.001116        0.132119       -0.014353
 C         1.296930       -0.683192       -0.126776
 O        -0.002887        1.361032        0.310519
 C        -1.287372       -0.700231       -0.101691
 H         1.379648       -1.076271       -1.154586
 H         1.291916       -1.560185        0.531290
 H         2.142958       -0.019805        0.079729
 H        -1.511384       -0.860375       -1.172570
 H        -2.116066       -0.118716        0.320046
 H        -1.183890       -1.690865        0.347632
10
 generated by VMD
 C         0.001949        0.133560        0.114180
 C         1.310756       -0.688682       -0.146270
 O        -0.003333        1.407381        0.259424
 C        -1.304365       -0.700661       -0.123872
 H         1.377653       -1.075418       -1.172605
 H         1.303602       -1.563693        0.530806
 H         2.165279       -0.035202        0.077721
 H        -1.508604       -0.864382       -1.191797
 H        -2.137174       -0.137508        0.321997
 H        -1.194794       -1.691886        0.349656
10
 generated by VMD
 C         0.001104        0.144607        0.061229
 C         1.310202       -0.685742       -0.138502
 O        -0.002471        1.374430        0.279081
 C        -1.307434       -0.692095       -0.123267
 H         1.377142       -1.063228       -1.172700
 H         1.308883       -1.552909        0.542179
 H         2.181160       -0.049551        0.075474
 H        -1.506306       -0.860298       -1.193598
 H        -2.151471       -0.153089        0.326789
 H        -1.199839       -1.678617        0.362554
10
 generated by VMD
 C         0.000425        0.135204        0.062889
 C         1.319791       -0.679134       -0.143738
 O        -0.000361        1.362580        0.325516
 C        -1.312987       -0.696332       -0.113719
 H         1.366807       -1.051756       -1.181553
 H         1.326203       -1.548064        0.534721
 H         2.204809       -0.057478        0.054496
 H        -1.491035       -0.880381       -1.189616
 H        -2.188441       -0.139495        0.265930
 H        -1.214243       -1.661633        0.404314
10
 generated by VMD
 C         0.000686        0.142108        0.056657
 C         1.318988       -0.680194       -0.150917
 O        -0.000514        1.362413        0.363858
 C        -1.317569       -0.686907       -0.129298
 H         1.365385       -1.067652       -1.181294
 H         1.330074       -1.536659        0.543276
 H         2.205261       -0.054286        0.037673
 H        -1.476770       -0.906651       -1.200584
 H        -2.184400       -0.141225        0.274343
 H        -1.230170       -1.647437        0.405526
10
 generated by VMD
 C         0.001233        0.147244        0.069372
 C         1.313758       -0.681045       -0.143516
 O        -0.002688        1.362839        0.355255
 C        -1.310631       -0.690462       -0.117273
 H         1.354643       -1.064161       -1.177565
 H         1.339037       -1.554322        0.524984
 H         2.192585       -0.042927        0.036357
 H        -1.459811       -0.913476       -1.190349
 H        -2.177594       -0.124346        0.258390
 H        -1.239562       -1.655835        0.403585
10
 generated by VMD
 C         0.000710        0.141020        0.070461
 C         1.316734       -0.681467       -0.150837
 O        -0.001555        1.357542        0.361446
 C        -1.312373       -0.694396       -0.122841
 H         1.354401       -1.062674       -1.183802
 H         1.339982       -1.545403        0.533136
 H         2.194455       -0.046040        0.037793
 H        -1.465177       -0.907010       -1.193087
 H        -2.178679       -0.125782        0.251098
 H        -1.237530       -1.652280        0.415874
10
 generated by VMD
 C         0.000762        0.135957        0.074848
 C         1.319510       -0.679199       -0.151031
 O        -0.000644        1.352564        0.379733
 C        -1.316932       -0.688958       -0.122591
 H         1.351369       -1.063409       -1.184271
 H         1.344624       -1.540946        0.535867
 H         2.202129       -0.045455        0.021742
 H        -1.455911       -0.918819       -1.194131
 H        -2.188517       -0.122423        0.238856
 H        -1.245421       -1.645804        0.420218
10
 generated by VMD
 C         0.000847        0.137872        0.078890
 C         1.317670       -0.679217       -0.155246
 O        -0.001158        1.349574        0.399904
 C        -1.314451       -0.690601       -0.124807
 H         1.345923       -1.068173       -1.186534
 H         1.353028       -1.539043        0.533290
 H         2.199249       -0.042083        0.013995
 H        -1.446732       -0.928914       -1.195276
 H        -2.188538       -0.115958        0.222668
 H        -1.254867       -1.639947        0.432356
10
 generated by VMD
 C         0.000581        0.135279        0.086830
 C         1.317927       -0.678477       -0.159634
 O        -0.000265        1.340551        0.425645
 C        -1.314647       -0.691509       -0.126808
 H         1.332680       -1.073415       -1.189152
 H         1.365235       -1.533296        0.534602
 H         2.196540       -0.035244       -0.000764
 H        -1.430459       -0.942020       -1.195621
 H        -2.187629       -0.104890        0.200842
 H        -1.268993       -1.633469        0.443301
10
 generated by VMD
 C         0.001037        0.130708        0.099286
 C         1.317902       -0.677783       -0.163354
 O        -0.000942        1.329101        0.462116
 C        -1.314806       -0.690240       -0.130129
 H         1.320163       -1.078163       -1.190632
 H         1.382550       -1.528645        0.534612
 H         2.195743       -0.027430       -0.026801
 H        -1.409361       -0.959485       -1.195591
 H        -2.191427       -0.093621        0.168059
 H        -1.289889       -1.620931        0.461674
10
 generated by VMD
 C         0.000870        0.126068        0.109759
 C         1.317924       -0.674231       -0.171530
 O        -0.000042        1.317714        0.497552
 C        -1.316080       -0.687426       -0.129967
 H         1.306452       -1.078634       -1.195705
 H         1.401942       -1.523092        0.528645
 H         2.195014       -0.024573       -0.041577
 H        -1.386419       -0.986104       -1.190738
 H        -2.196032       -0.079474        0.132610
 H        -1.312657       -1.606739        0.480193
10
 generated by VMD
 C         0.000599        0.125696        0.108897
 C         1.318081       -0.675425       -0.167380
 O         0.000887        1.318593        0.489070
 C        -1.315819       -0.688866       -0.130821
 H         1.307028       -1.080762       -1.191717
 H         1.397991       -1.521704        0.534561
 H         2.194898       -0.022705       -0.044727
 H        -1.391569       -0.975569       -1.190936
 H        -2.191524       -0.084698        0.142038
 H        -1.309603       -1.611050        0.470254
10
 generated by VMD
 C         0.000639        0.126263        0.110639
 C         1.318195       -0.676466       -0.167696
 O         0.000695        1.319396        0.489965
 C        -1.315834       -0.690045       -0.129964
 H         1.308705       -1.071559       -1.196301
 H         1.391605       -1.529064        0.525573
 H         2.193749       -0.023113       -0.039957
 H        -1.386040       -0.985295       -1.191345
 H        -2.193793       -0.079665        0.135424
 H        -1.306952       -1.606942        0.482902
10
 generated by VMD
 C         0.001099        0.126838        0.108991
 C         1.318137       -0.675339       -0.169182
 O        -0.000149        1.319819        0.489994
 C        -1.315391       -0.688902       -0.129793
 H         1.309222       -1.074264       -1.196103
 H         1.393750       -1.527473        0.525900
 H         2.194514       -0.024361       -0.037829
 H        -1.388026       -0.983906       -1.189851
 H        -2.193804       -0.082014        0.136519
 H        -1.308383       -1.606890        0.480593
10
 generated by VMD
 C         0.000571        0.126685        0.109854
 C         1.317290       -0.675391       -0.169763
 O         0.000842        1.319220        0.492386
 C        -1.315536       -0.689291       -0.129322
 H         1.309018       -1.070950       -1.197718
 H         1.394143       -1.527399        0.525451
 H         2.194917       -0.025325       -0.038777
 H        -1.385704       -0.987864       -1.188448
 H        -2.193670       -0.080414        0.132892
 H        -1.310903       -1.605761        0.482685
10
 generated by VMD
 C         0.000547        0.126643        0.109932
 C         1.317527       -0.674781       -0.170006
 O         0.000758        1.319193        0.491978
 C        -1.315472       -0.689554       -0.128891
 H         1.309581       -1.067657       -1.199257
 H         1.392197       -1.530154        0.521153
 H         2.195051       -0.025564       -0.035911
 H        -1.383677       -0.991195       -1.187159
 H        -2.193694       -0.079813        0.130487
 H        -1.311848       -1.603607        0.486916
