18
# frame count: 17 , filename: c10h8.out
C     1.387757265  1.228802694  0.000000000
C     0.700098760  2.407083924  -0.000000000
C     -0.700098760  2.407083924  0.000000000
C     -1.387757265  1.228802694  -0.000000000
C     -0.710084688  0.000000000  0.000000000
C     0.710084688  -0.000000000  0.000000000
H     2.481313104  1.220927481  0.000000000
H     1.240247331  3.355971710  -0.000000000
H     -1.240247331  3.355971710  0.000000000
H     -2.481313104  1.220927481  0.000000000
C     1.387757265  -1.228802694  -0.000000000
C     -1.387757265  -1.228802694  0.000000000
C     -0.700098760  -2.407083924  -0.000000000
C     0.700098760  -2.407083924  0.000000000
H     2.481313104  -1.220927481  0.000000000
H     -2.481313104  -1.220927481  0.000000000
H     -1.240247331  -3.355971710  -0.000000000
H     1.240247331  -3.355971710  0.000000000
