10

C    0.00000000  0.00000000  0.00000000
C    0.46570000  1.34060000 -0.40290000
C    1.87140000  1.59860000 -0.77180000
H    2.14390000  2.63200000 -0.54730000
H    2.54540000  0.93980000 -0.21960000
H    2.00370000  1.42730000 -1.84150000
O   -0.35500000  2.28760000 -0.43280000
H    0.11720000 -0.11660000  1.07860000
H    0.57310000 -0.77940000 -0.50680000
H   -1.05400000 -0.13210000 -0.25290000
