122

C    0.00000000  0.00000000  0.00000000
C    0.25500000 -1.47360000 -0.16310000
C    1.13870000 -2.70010000 -0.09800000
C    0.02560000 -3.31850000  1.12190000
C   -0.33790000 -2.13520000  2.23950000
C   -0.90790000 -0.79550000  1.31280000
C   -2.36670000 -1.31350000  0.78700000
C   -2.06250000 -2.51180000 -0.19730000
C   -1.38400000 -3.81400000  0.46040000
C   -1.10880000 -5.14010000 -0.38450000
C   -0.43280000 -6.38670000  0.34070000
C    0.98570000 -5.89060000  0.87880000
C    0.49300000 -4.69420000  1.94590000
H   -0.31370000 -5.04460000  2.59760000
H    1.29140000 -4.45670000  2.64890000
C    2.09370000 -5.43600000 -0.41340000
C    1.26730000 -4.16420000 -0.39820000
C   -0.01420000 -4.65230000 -1.29740000
H    0.19500000 -5.26850000 -2.10590000
H   -0.44010000 -3.98030000 -1.95670000
C    2.74540000 -3.83650000  0.52060000
C    3.90990000 -3.31660000 -0.36780000
C    4.20640000 -4.49650000 -1.44260000
C    2.72980000 -4.90680000 -1.95570000
C    2.17290000 -3.55590000 -2.69090000
C    1.90560000 -2.35530000 -1.61900000
C    1.35530000 -1.06250000 -2.43370000
C    1.03620000  0.15720000 -1.41310000
C    2.51210000  0.55200000 -0.91520000
C    2.98660000 -0.67010000 -0.05420000
C    3.35510000 -1.93380000 -1.02940000
C    4.57610000 -1.41420000 -1.97100000
C    4.36610000 -0.05390000 -2.75070000
C    3.77490000  1.01290000 -1.78960000
C    5.02490000  1.33530000 -0.86660000
C    5.41900000  0.05580000 -0.02530000
C    5.80100000 -1.16880000 -0.98680000
C    6.31200000 -2.57230000 -0.40690000
C    6.62450000 -3.66750000 -1.54010000
C    5.32540000 -3.86120000 -2.43280000
C    5.09470000 -2.42760000 -3.03920000
H    4.50980000 -2.41460000 -3.95150000
H    6.04280000 -2.05630000 -3.44750000
C    5.66990000 -4.78470000 -3.65290000
C    5.97280000 -6.23790000 -3.15920000
C    7.37330000 -6.02540000 -2.45040000
C    7.20040000 -5.10550000 -1.17510000
C    6.26710000 -5.94170000 -0.27230000
C    4.81630000 -5.92900000 -0.91990000
C    4.93760000 -6.91740000 -2.13400000
C    3.44480000 -7.42190000 -2.40940000
C    2.82050000 -6.07440000 -3.08440000
H    1.84190000 -6.25830000 -3.50460000
H    3.32150000 -5.82080000 -3.98990000
C    2.89650000 -8.20320000 -0.91140000
C    2.16250000 -6.91450000 -0.81440000
C    0.78190000 -7.59590000 -1.57520000
C   -0.24700000 -7.75480000 -0.45570000
C    0.47080000 -8.90670000  0.33210000
C    1.94620000 -8.39480000  0.59340000
C    1.57570000 -7.18270000  1.67650000
H    0.85770000 -7.50980000  2.43640000
H    2.43420000 -6.91800000  2.28990000
H    2.45160000 -9.17790000  1.16730000
H    0.49870000 -9.83940000 -0.24230000
H   -0.07880000 -9.14960000  1.24600000
H   -1.20820000 -8.10730000 -0.84160000
H    0.86290000 -8.55400000 -2.11450000
H    0.29880000 -7.15140000 -2.41850000
C    3.80120000 -6.69750000 -0.00910000
H    4.42890000 -7.51230000  0.47840000
H    3.87080000 -6.21600000  0.94580000
H    2.64910000 -9.18390000 -1.33730000
H    3.48460000 -8.18040000 -3.19890000
H    5.43570000 -7.85080000 -1.83900000
H    6.34050000 -5.67750000  0.77160000
H    6.65370000 -6.96530000 -0.19550000
H    8.16960000 -4.99060000 -0.68230000
H    8.10970000 -5.57600000 -3.12320000
H    7.80080000 -6.99660000 -2.18750000
H    6.09800000 -6.89500000 -4.02230000
H    6.54050000 -4.38210000 -4.18420000
H    4.93440000 -4.73140000 -4.44390000
H    7.43280000 -3.22800000 -2.13890000
C    5.18820000 -3.09140000  0.49940000
H    5.44080000 -3.95030000  1.06210000
H    5.06180000 -2.46410000  1.34210000
H    7.21130000 -2.40830000  0.19330000
H    6.66540000 -0.80280000 -1.55470000
C    4.15110000 -0.13490000  0.86170000
H    3.87130000  0.81890000  1.32290000
H    4.30090000 -0.69740000  1.76980000
H    6.27470000  0.28770000  0.61500000
H    5.89020000  1.66490000 -1.45040000
H    4.79390000  2.18430000 -0.21530000
H    3.51310000  1.90970000 -2.35750000
H    3.81820000 -0.12200000 -3.68110000
H    5.32600000  0.29590000 -3.14950000
C    1.68520000 -0.89700000  0.79680000
H    1.99960000 -1.42660000  1.68230000
H    1.63710000 -0.00040000  1.48070000
H    2.32450000  1.43000000 -0.28210000
H    0.67450000  0.99740000 -2.01520000
H    0.50210000 -1.28170000 -3.05710000
H    1.99320000 -0.77450000 -3.22800000
H    1.26810000 -3.75090000 -3.25620000
H    2.76700000 -3.28040000 -3.52290000
H    2.75620000 -3.19460000  1.39540000
H    3.11690000 -4.46860000  1.33970000
H   -1.09510000 -6.65190000  1.17220000
H   -2.00500000 -5.44830000 -0.93110000
H   -2.07120000 -4.11930000  1.25460000
C   -1.10490000 -1.73630000 -1.12380000
H   -1.64360000 -0.87080000 -1.53900000
H   -1.03240000 -2.18160000 -2.08290000
H   -2.97280000 -2.79970000 -0.73080000
H   -2.93590000 -0.50730000  0.31110000
H   -2.97930000 -1.67260000  1.61580000
H   -1.16310000  0.06880000  1.97360000
H   -1.15270000 -2.49150000  2.87280000
H    0.44470000 -1.89130000  2.95530000
H   -0.83250000  0.61780000 -0.35520000
