78

C    0.00000000  0.00000000  0.00000000
C    1.31875400  0.12959600 -0.23564200
C    1.87518700  1.34286200 -0.35680200
C    1.10211000  2.43043000 -0.25808500
C   -0.20946700  2.29771400 -0.01060600
C   -0.78178400  1.08887600  0.15687100
C   -2.10142700  0.95073900  0.42633200
C   -2.65430900 -0.28401200  0.48102800
C   -1.86562700 -1.35638800  0.29385900
C   -0.55192100 -1.22151900  0.07095100
H    0.05856800 -2.13162600 -0.06506400
H   -2.26236900 -2.38321600  0.32911500
P   -4.44487900 -0.51698800  0.85013800
C   -4.41876800 -2.17057200  1.64436500
C   -4.19014100 -2.22514800  2.96859700
C   -4.13053600 -3.40379600  3.60796500
C   -4.29411600 -4.54786600  2.92756700
C   -4.53250400 -4.50430100  1.60852000
C   -4.59538200 -3.32356200  0.97386300
H   -4.77778500 -3.33781600 -0.11302800
H   -4.66724200 -5.44246000  1.04188300
H   -4.23104100 -5.51994500  3.44729900
H   -3.93608600 -3.43431200  4.69386100
H   -4.03847500 -1.29981900  3.55104200
C   -5.17101500 -0.94226700 -0.77675600
C   -6.51393700 -0.99901500 -0.84412700
C   -7.13491100 -1.30923000 -1.99273400
C   -6.41815600 -1.56656900 -3.09635100
C   -5.07899500 -1.51680500 -3.04000700
C   -4.46114800 -1.21716600 -1.88598400
H   -3.35941700 -1.20132500 -1.88556900
H   -4.48670900 -1.72820700 -3.94768700
H   -6.92501600 -1.82158900 -4.04322200
H   -8.23729800 -1.35290200 -2.02948000
H   -7.13102600 -0.79436600  0.04883200
C   -2.87213700  2.03159100  0.68170500
C   -2.77205500  2.64601500  1.88426000
C   -3.59118000  3.67692800  2.15525200
C   -4.50424100  4.09002600  1.26728700
C   -4.59824700  3.49556500  0.06775000
C   -5.51031200  3.92259300 -0.82523400
C   -5.58410000  3.37084700 -2.04450600
C   -4.72728300  2.39781200 -2.37480700
C   -3.82803900  1.96603100 -1.47810000
C   -3.76479300  2.47763500 -0.23291400
H   -3.13069700  1.18174500 -1.81584400
H   -4.75550900  1.95644700 -3.38572400
H   -6.32703700  3.73367200 -2.77594000
H   -6.20782600  4.74190500 -0.57774100
H   -5.16375900  4.93355800  1.53886900
H   -3.55372800  4.21170200  3.11764900
P   -1.57419300  2.06753400  3.15981900
C   -0.24170200  3.32301100  3.10405400
C   -0.30633600  4.48128100  2.42284100
C    0.72270800  5.34392900  2.43575500
C    1.82528700  5.06979000  3.14861800
C    1.89392300  3.92507700  3.84351100
C    0.86789300  3.06030000  3.81886800
H    0.95263700  2.12679200  4.40318300
H    2.79580700  3.69420900  4.43667500
H    2.66719600  5.78350100  3.16575400
H    0.66407300  6.28598000  1.86258800
H   -1.19583100  4.75605700  1.83342700
C   -2.44039300  2.57095500  4.69672100
C   -2.24383800  3.75123500  5.31189500
C   -2.93365000  4.07363900  6.41694200
C   -3.83050500  3.21569400  6.92507100
C   -4.02399300  2.03069600  6.32764900
C   -3.33490600  1.71388800  5.22025300
H   -3.52396800  0.73735600  4.74155700
H   -4.75949500  1.32046900  6.74307900
H   -4.40612800  3.48603800  7.82764200
H   -2.76993000  5.05147000  6.90318900
H   -1.52918900  4.49418800  4.92188100
H   -0.80072300  3.22683100  0.03285100
H    1.54116800  3.43405400 -0.38743000
H    2.95590400  1.44194900 -0.56145100
H    1.96630600 -0.75731600 -0.34529000
