43

Ce   0.00000000  0.00000000  0.00000000
O    2.05630000  0.00000000  0.00000000
C    2.71310000  1.06580000  0.00000000
C    2.25720000  2.19250000 -0.67260000
C    1.17120000  2.26120000 -1.46710000
C    0.80600000  3.51080000 -2.10930000
H    0.78610000  4.30860000 -1.36680000
H    1.53800000  3.75050000 -2.88050000
H   -0.18020000  3.41170000 -2.56270000
O    0.40890000  1.20650000 -1.76220000
H    2.83340000  3.10900000 -0.54540000
C    3.96970000  1.05840000  0.77780000
H    3.73790000  1.07750000  1.84270000
H    4.53570000  0.15640000  0.54520000
H    4.56220000  1.93600000  0.51910000
O   -0.58240000 -1.46670000 -1.48760000
C    0.40640000 -2.35080000 -1.58280000
C    0.97360000 -2.90870000 -0.49420000
C    0.63960000 -2.63160000  0.82980000
O   -0.16590000 -1.71830000  1.12940000
C    1.25340000 -3.38590000  1.94250000
H    1.13050000 -2.82820000  2.87090000
H    0.76700000 -4.35700000  2.03500000
H    2.31530000 -3.52900000  1.74240000
H    1.76270000 -3.64090000 -0.66500000
C    0.85360000 -2.67300000 -2.92410000
H    1.85110000 -3.11020000 -2.87930000
H    0.16420000 -3.38650000 -3.37540000
H    0.88180000 -1.76460000 -3.52580000
O    0.02080000  1.03770000  1.91000000
C   -0.40520000  2.29380000  1.77490000
C    0.30000000  3.28740000  2.56320000
H    0.30940000  2.98140000  3.60930000
H    1.32440000  3.37760000  2.20180000
H   -0.20400000  4.24940000  2.47050000
C   -1.45620000  2.64410000  1.00640000
C   -2.22910000  1.78890000  0.22640000
O   -1.96180000  0.56990000  0.12430000
C   -3.40440000  2.25640000 -0.53820000
H   -4.14620000  2.66380000  0.14870000
H   -3.09620000  3.03050000 -1.24090000
H   -3.83760000  1.41970000 -1.08630000
H   -1.72690000  3.69990000  0.99480000
