57

C    0.00000000  0.00000000  0.00000000
C   -0.52796900 -1.31050800 -0.56460900
O   -1.33608200 -1.32378900 -1.46190100
N   -0.00418500 -2.44942700  0.01823600
C   -0.42725400 -3.80593000 -0.34672600
C   -1.62089500 -4.10503600  0.56978200
C   -2.94762100 -3.95114400 -0.17127000
C   -3.11163400 -5.28564300 -0.84486000
C   -2.31475100 -5.68458500 -1.85453800
C   -1.41294200 -4.86557100 -2.46493600
C   -0.52211600 -4.03624000 -1.87102600
C    0.48433900 -3.39658500 -2.50971300
C    0.88429300 -3.23248700 -3.79718400
O    1.90258200 -2.59584900 -3.97630600
C    0.24737500 -3.67648800 -4.91127500
O    0.77928500 -3.42497600 -6.15977600
C    0.15610100 -2.34778000 -6.83363900
H   -0.92196700 -2.57614700 -7.00912700
H    0.66280500 -2.21088000 -7.81714000
H    0.25726100 -1.41424100 -6.23097900
C   -0.83968800 -4.45079500 -4.83295400
C   -1.53586500 -4.94562600 -3.80638500
H   -2.40611400 -5.50733300 -4.19693500
H   -1.23161100 -4.74508700 -5.82419600
H    1.21682700 -2.88955300 -1.85977000
C   -2.43654100 -6.97809300 -2.27476000
C   -3.43068400 -7.77339000 -1.80886200
O   -3.60903600 -9.04100500 -2.31750700
C   -2.97097900 -10.0629000 -1.57470700
H   -3.34010200 -10.0622000 -0.52192300
H   -3.21604300 -11.0416100 -2.04922500
H   -1.86539600 -9.91911400 -1.59201400
C   -4.34303400 -7.29048800 -0.94228800
C   -4.10151200 -6.08318400 -0.41392800
H   -4.76722800 -5.74275700  0.39639300
O   -5.36323400 -8.07338000 -0.46084200
C   -6.53389300 -8.03448200 -1.25562800
H   -7.29196400 -8.70504300 -0.78742400
H   -6.93395400 -6.99328400 -1.29544000
H   -6.31538700 -8.40316200 -2.28589100
O   -1.58108700 -7.55305800 -3.19956100
C   -0.23730200 -7.70633900 -2.76649100
H    0.29536600 -6.72833200 -2.74296400
H    0.28791300 -8.36916100 -3.49420100
H   -0.20975600 -8.17868500 -1.75657100
H   -3.76446200 -3.74373300  0.55963500
H   -2.96173900 -3.11152800 -0.90076700
H   -1.60388100 -3.42998200  1.45963600
H   -1.53706700 -5.12983700  1.00740600
H    0.41457500 -4.45651100 -0.00717300
H    0.59829200 -2.30252200  0.82747300
C   -0.64746300  1.24649900 -0.61597700
H   -0.21089100  2.17730300 -0.18561100
H   -0.48947200  1.28511000 -1.71871100
H   -1.74362700  1.26896000 -0.41568100
H    1.10096100  0.03168700 -0.18073500
H   -0.16872000  0.00512200  1.10352100
