42

C    0.00000000  0.00000000  0.00000000
C    0.81411500  1.26489800  0.21449600
O    2.01643900  1.14375000  0.27294200
N    0.17245300  2.49591600  0.31081100
C    0.99258200  3.66798600  0.59409500
C    0.56900200  4.83304400 -0.31452200
C    1.36004700  6.11422800 -0.00807400
C    0.92824900  6.70292700  1.33826800
C   -0.59523100  6.87958000  1.37728200
N   -1.32821900  5.65207000  1.07510400
C   -2.76398700  5.91051500  1.15664000
C   -3.62263600  4.67887500  0.84076600
C   -3.22831600  4.10751100 -0.52363100
C   -1.72058600  3.80355800 -0.55668500
C   -1.28768500  2.61657700  0.33930200
C   -2.06445700  1.33706900 -0.01221200
C   -1.39719900  0.10924700  0.60702400
H   -1.33529000  0.21608300  1.71646400
H   -1.98811400 -0.81230700  0.38592100
H   -3.11504200  1.39951200  0.35842400
H   -2.11008800  1.20762600 -1.11934100
H   -1.52182200  2.85696700  1.40253900
C   -0.94726500  5.10144600 -0.22327900
H   -1.19821000  5.85723600 -1.00848400
H   -1.46263300  3.51663100 -1.60600800
H   -3.46914400  4.86041400 -1.31187300
H   -3.84168400  3.21069500 -0.77016400
H   -4.70416400  4.95746000  0.83738300
H   -3.49780200  3.90979900  1.63820400
H   -3.04531800  6.72679900  0.44843000
H   -3.02331000  6.26278000  2.18411800
H   -0.87720400  7.24407700  2.39451700
H   -0.87608900  7.68054500  0.65167700
H    1.43255700  7.68619000  1.50021000
H    1.25311800  6.04381500  2.17669800
H    1.16745500  6.86622700 -0.81035600
H    2.45754900  5.91185100 -0.01210700
H    0.80849100  4.53083500 -1.36480200
H    2.08207300  3.48508500  0.44791800
H    0.84412000  3.91239400  1.66983400
H    0.53830700 -0.87525500  0.43564200
H   -0.07292600 -0.17060100 -1.10000900
