8

C    0.00000000  0.00000000  0.00000000
O    1.17791554  0.56367125 -0.63930378
C    1.44242446  1.88115142 -0.50461296
S    2.85789824  2.21247392 -1.35369655
S    0.39638783  2.84074652  0.40427329
H   -0.90043836  0.48092985 -0.39353802
H    0.06168585 -1.05161322 -0.28620450
H    0.06648405  0.13564890  1.08356963
