11

C    0.00000000  0.00000000  0.00000000
C    0.70038345 -0.86426295  0.94043235
N    1.25277133 -1.55695536  1.68115598
C    0.36323017  1.47780092  0.24463445
O    0.49732478  2.23911569 -0.67901842
H    0.46728112  1.77406486  1.29788172
C   -1.51636559 -0.15976359  0.12953407
H   -1.82437594 -1.19607704 -0.06926828
H   -1.87859120  0.09675660  1.13332992
H   -2.04410112  0.47865384 -0.59305218
H    0.31077714 -0.27552877 -1.05002732
