19

C    0.00000000  0.00000000  0.00000000
C   -0.83730000 -0.10110000  1.29560000
C   -0.04180000  0.09000000  2.62960000
C    1.07210000 -0.97990000  2.82690000
H    1.58670000 -0.82510000  3.77790000
H    1.82240000 -0.90590000  2.03980000
H    0.64890000 -1.98740000  2.81740000
H    0.44980000  1.06770000  2.59210000
C   -0.99270000  0.09440000  3.86420000
N   -2.02110000  1.13830000  3.78330000
H   -1.54020000  2.03870000  3.77760000
H   -2.56460000  1.09540000  4.64740000
H   -1.49250000 -0.87110000  3.96000000
H   -0.42040000  0.27380000  4.77660000
H   -1.60690000  0.67320000  1.23070000
H   -1.34570000 -1.06850000  1.30890000
H    0.53180000  0.95310000 -0.03870000
H   -0.66110000 -0.06650000 -0.86660000
H    0.71820000 -0.81660000 -0.06480000
