15

C    0.00000000  0.00000000  0.00000000
C   -0.43330000  1.14440000 -0.95080000
C    0.09430000  2.55830000 -0.55180000
C   -0.46640000  3.66410000 -1.48600000
H   -0.12940000  4.65230000 -1.16140000
H   -1.55800000  3.66330000 -1.46000000
H   -0.14700000  3.50630000 -2.52020000
H   -0.24870000  2.78090000  0.46200000
C    1.47140000  2.60590000 -0.53680000
N    2.61960000  2.63730000 -0.52260000
H   -1.52710000  1.16670000 -0.95540000
H   -0.10870000  0.89870000 -1.96760000
H   -0.35730000  0.19160000  1.01290000
H   -0.41880000 -0.94530000 -0.34710000
H    1.08660000 -0.09470000  0.01870000
