17

C    0.00000000  0.00000000  0.00000000
C   -0.65200000  0.95940000  1.02570000
C    0.36260000  1.78080000  1.88210000
C   -0.35970000  2.65170000  2.94750000
H    0.37240000  3.18230000  3.56270000
H   -1.02080000  3.38350000  2.47760000
H   -0.95650000  2.02130000  3.61000000
H    0.98390000  1.06650000  2.43430000
C    1.20860000  2.61830000  1.04040000
N    2.47220000  2.43970000  0.97140000
H    2.99340000  2.98050000  0.41460000
H    0.80280000  3.34150000  0.49330000
H   -1.32050000  1.64030000  0.49170000
H   -1.26830000  0.35340000  1.69630000
H    0.64270000 -0.72260000  0.50520000
H   -0.77870000 -0.54100000 -0.54100000
H    0.59320000  0.55450000 -0.72760000
