16

C    0.00000000  0.00000000  0.00000000
C    1.39880021 -0.00289743 -0.13924131
C    2.07537498  1.18194792 -0.43581431
C    1.36671716  2.37869876 -0.58716962
C   -0.02376567  2.38669376 -0.44292711
C   -0.70758399  1.20331494 -0.15204419
H   -1.78998245  1.21368958 -0.03695328
H   -0.57698548  3.31738924 -0.55768429
H    1.89693059  3.30071636 -0.81565796
H    3.15827221  1.17415429 -0.54850719
H    1.95467474 -0.93127956 -0.02293402
C   -0.70010784 -1.25892194  0.31510982
C   -1.83421129 -1.64562139 -0.26879013
H   -2.33411095 -2.57382045 -0.03136925
H   -2.34272063 -1.07132298 -1.03100543
H   -0.20999651 -1.87595202  1.07376130
