137

Ni   0.00000000  0.00000000  0.00000000
P   -2.33610000  0.86220000  0.08880000
C   -2.69730000  2.32490000 -1.03070000
C   -3.98400000  3.08480000 -0.92270000
C   -4.24600000  4.13960000 -1.69950000
C   -3.25990000  4.55550000 -2.70450000
C   -2.12290000  3.87890000 -2.83930000
C   -1.82960000  2.71990000 -1.96820000
H   -0.90650000  2.21060000 -2.11240000
H   -1.41120000  4.18480000 -3.59270000
H   -3.47100000  5.40570000 -3.34040000
H   -5.17810000  4.67780000 -1.59890000
H   -4.76610000  2.83400000 -0.21960000
C   -3.42840000 -0.28560000 -0.90070000
C   -4.76860000 -0.10120000 -0.97880000
C   -5.64090000 -1.02890000 -1.71130000
H   -6.71440000 -0.86520000 -1.72960000
C   -5.10900000 -2.07690000 -2.34260000
H   -5.74470000 -2.76480000 -2.87790000
C   -3.64490000 -2.27920000 -2.31280000
C   -2.85680000 -1.43500000 -1.63980000
H   -1.78860000 -1.59610000 -1.64260000
H   -3.21450000 -3.11790000 -2.84530000
H   -5.27650000  0.71350000 -0.48930000
P   -0.78290000 -2.32630000  0.86260000
P    2.12500000 -0.95530000 -1.03060000
C    2.32340000 -0.00540000 -2.63870000
C    1.09290000  0.57380000 -3.20950000
C    1.10810000  1.27150000 -4.34820000
C    2.37670000  1.47820000 -5.07640000
C    3.50450000  0.96430000 -4.59090000
C    3.47720000  0.20370000 -3.33430000
H    4.46000000 -0.10340000 -3.06580000
H    4.44590000  1.11040000 -5.11320000
H    2.39080000  2.04130000 -5.99620000
H    0.19120000  1.68470000 -4.74590000
H    0.16110000  0.41320000 -2.68760000
P    0.91290000  2.41760000 -0.10330000
C    0.40820000 -3.42370000  1.87000000
C   -0.04100000 -4.28200000  2.82290000
H   -1.06320000 -4.28290000  3.17510000
C    0.78840000 -5.39960000  3.33600000
H    0.37480000 -6.10240000  4.04750000
C    2.02320000 -5.58970000  2.86050000
C    2.56870000 -4.63090000  1.88740000
C    1.81440000 -3.61530000  1.44350000
H    2.24050000 -2.93730000  0.75240000
H    3.58680000 -4.75320000  1.53170000
H    2.61810000 -6.43560000  3.18880000
C   -1.47940000 -4.03010000  0.16280000
C   -2.20380000 -4.84350000  0.98900000
H   -3.09590000 -4.98800000  0.38190000
C   -2.27690000 -6.31920000  0.93210000
H   -2.78780000 -6.87660000  1.71020000
C   -1.71880000 -6.95220000 -0.10190000
C   -1.04830000 -6.13240000 -1.13080000
C   -0.93860000 -4.78700000 -0.98770000
H   -0.44030000 -4.20250000 -1.68540000
H   -0.63000000 -6.65970000 -1.97810000
H   -1.77190000 -8.03120000 -0.17670000
C   -2.28870000 -2.17140000  2.00020000
C   -2.18570000 -1.84080000  3.29740000
C   -3.35840000 -1.95280000  4.19860000
H   -3.25570000 -1.68870000  5.24260000
C   -4.53490000 -2.41830000  3.75190000
H   -5.38450000 -2.51870000  4.41140000
C   -4.68370000 -2.77460000  2.33490000
H   -5.64230000 -3.11840000  1.95550000
C   -3.64440000 -2.61460000  1.51340000
H   -3.81160000 -2.85180000  0.47100000
H   -1.22880000 -1.55830000  3.71480000
C   -3.52930000  1.33030000  1.53230000
C   -3.61560000  2.57750000  2.02700000
C   -4.66610000  3.00840000  2.99730000
H   -4.70800000  4.02620000  3.35880000
C   -5.60230000  2.14250000  3.39790000
H   -6.39320000  2.43970000  4.07930000
C   -5.58190000  0.78400000  2.86080000
H   -6.36140000  0.08130000  3.12780000
C   -4.62080000  0.43630000  1.99490000
H   -4.70260000 -0.50810000  1.56930000
H   -2.95920000  3.32710000  1.64380000
C    2.80730000  2.29080000 -0.17840000
C    3.62060000  2.20250000  0.88070000
H    3.20610000  2.11280000  1.87580000
C    5.09790000  2.30610000  0.69780000
C    5.64670000  2.49810000 -0.51340000
C    4.78630000  2.60040000 -1.69080000
C    3.47450000  2.48810000 -1.52480000
H    2.86780000  2.59400000 -2.41040000
H    5.20270000  2.77210000 -2.67970000
H    6.71620000  2.58530000 -0.64830000
H    5.74460000  2.23840000  1.56160000
C   -0.15860000  3.64560000  1.01300000
C   -0.65390000  4.86520000  0.55210000
C   -1.38690000  5.84410000  1.37070000
H   -1.68060000  6.80380000  0.94810000
C   -1.66700000  5.54630000  2.62580000
H   -2.21320000  6.25420000  3.24170000
C   -1.23710000  4.24680000  3.16820000
H   -1.57650000  4.05620000  4.16850000
C   -0.51560000  3.36090000  2.42950000
H   -0.23890000  2.41280000  2.86280000
H   -0.52250000  5.31180000 -0.43220000
C    1.51050000  4.12640000 -0.80200000
C    1.29090000  4.64490000 -2.18230000
C    1.74640000  5.85960000 -2.54390000
C    2.49330000  6.71550000 -1.59620000
C    2.71470000  6.28180000 -0.35680000
C    2.20450000  4.96440000  0.04250000
H    2.40310000  4.67140000  1.07010000
H    3.26140000  6.89510000  0.35140000
H    2.86280000  7.68590000 -1.89980000
H    1.57830000  6.23270000 -3.54580000
H    0.76240000  4.03520000 -2.89490000
C    1.79680000 -2.60090000 -1.91550000
C    0.96090000 -2.68920000 -2.98360000
H    0.39320000 -1.84920000 -3.34080000
C    0.81210000 -3.97180000 -3.73080000
H    0.17880000 -4.00790000 -4.60470000
C    1.40990000 -5.09870000 -3.29260000
C    2.23540000 -5.04660000 -2.05990000
C    2.55050000 -3.85670000 -1.54810000
H    3.08500000 -3.56390000 -2.43490000
H    2.54300000 -5.95850000 -1.55790000
H    1.24960000 -6.03620000 -3.80140000
C    4.02450000 -1.18990000 -0.57400000
C    4.82900000 -1.80760000 -1.48180000
C    6.28340000 -2.01080000 -1.37010000
C    6.92290000 -1.54050000 -0.30890000
C    6.15010000 -0.86000000  0.73560000
C    4.79510000 -0.72160000  0.63990000
H    4.29570000 -0.22410000  1.45000000
H    6.77760000 -0.49610000  1.54810000
H    7.99540000 -1.66250000 -0.21940000
H    6.83070000 -2.51450000 -2.15680000
H    4.48150000 -2.16080000 -2.42900000
