28

C    0.00000000  0.00000000  0.00000000
C   -0.87570000 -0.58720000 -1.13890000
C   -1.27580000  0.49990000 -2.16870000
C   -1.96320000  1.71050000 -1.48280000
C   -1.07780000  2.30890000 -0.34780000
C   -0.69640000  1.20760000  0.69790000
C    0.18900000  1.80590000  1.83280000
C   -0.49840000  3.01660000  2.51880000
C   -0.89850000  4.10360000  1.48900000
C   -1.77420000  3.51640000  0.35010000
H   -1.96690000  4.30430000 -0.38340000
H   -2.73540000  3.20190000  0.76820000
H   -1.45200000  4.89540000  2.00390000
H    0.00600000  4.54900000  1.06130000
H    0.18400000  3.45590000  3.25340000
H   -1.39210000  2.67500000  3.05180000
H    1.15120000  2.12950000  1.42390000
H    0.38410000  1.04080000  2.58950000
H   -1.61660000  0.83290000  1.16190000
H   -0.15760000  2.68350000 -0.81190000
H   -2.15830000  2.47560000 -2.23950000
H   -2.92540000  1.38690000 -1.07390000
H   -1.95810000  0.06050000 -2.90330000
H   -0.38210000  0.84140000 -2.70180000
H   -0.32220000 -1.37890000 -1.65380000
H   -1.78020000 -1.03260000 -0.71120000
H    0.19270000 -0.78790000  0.73340000
H    0.96120000  0.31450000 -0.41820000
